!PBE D3 def2-QZVPP

%pal nprocs 8 end

*xyz 0 1
       -32.34079363
C         -3.7441303402        0.8416093282       -0.2942300129
C         -5.1524140699        1.4233207432       -0.2152691116
C         -6.0325233102        0.5671040631        0.6907079489
C         -6.0765640814       -0.8724505510        0.1865927382
C         -4.6677641715       -1.4530554228        0.1063237711
C         -3.7884856089       -0.5970376253       -0.8001361767
H         -2.7782288032       -1.0090053448       -0.8363250445
H         -4.1936239332       -0.6106850204       -1.8149222804
H         -4.7077937562       -2.4768425461       -0.2722079484
H         -4.2315095733       -1.4837522378        1.1076601758
H         -6.6936046876       -1.4810997181        0.8514533271
H         -6.5331131038       -0.8937545981       -0.8059665849
H         -7.0430933943        0.9802608139        0.7272465102
H         -5.6282264914        0.5820478715        1.7057900366
H         -5.1127937392        2.4472069071        0.1635261737
H         -5.5873422641        1.4540993397       -1.2172313789
H         -3.1246962634        1.4506393412       -0.9564340195
H         -3.2897516541        0.8608425105        0.6994026398
BI         2.2082683892        0.3231072531        0.0232533237
C          0.0599782823       -0.3172170254       -0.3159237421
H         -0.5803952612        0.1114234640        0.4434338352
H         -0.2758347497        0.0105473898       -1.2910409308
H          0.0040224190       -1.3950612022       -0.2629117057
C          2.4218006874       -1.0756379037        1.7955857417
H          1.8825077327       -0.6827126044        2.6475105455
H          3.4657157498       -1.1896265697        2.0567959473
H          2.0142734096       -2.0407523787        1.5313605458
C          2.9812869789       -1.2555483707       -1.4097001955
H          2.4888192271       -2.1933668367       -1.1968285881
H          4.0493861403       -1.3787866720       -1.2874622113
*