!PBE D3 def2-QZVPP

%pal nprocs 8 end

*xyz 0 1
 31
       -32.33912740
C          7.5994861677       -1.4238499145       -0.0585090554
C          7.0489856915       -0.8130484814        1.2268391962
C          6.2293455497        0.4357618117        0.9155800527
C          7.0769743553        1.4555637428        0.1607432399
C          7.6274166878        0.8447687789       -1.1246435299
C          8.4470880854       -0.4040215066       -0.8133403508
H          8.8221841196       -0.8441113343       -1.7400457626
H          9.3092020614       -0.1271664882       -0.2016910168
H          8.2467855369        1.5758032661       -1.6491813895
H          6.7966560300        0.5770598828       -1.7820343796
H          6.4775344613        2.3382514016       -0.0731021709
H          7.9083768636        1.7741170175        0.7942297735
H          5.8544258426        0.8758416374        1.8423090169
H          5.3670874830        0.1589463589        0.3041702266
H          6.4294577441       -1.5440282717        1.7511217379
H          7.8796791411       -0.5455295791        1.8844084960
H          8.1990303276       -2.3064517933        0.1753228742
H          6.7681270220       -1.7424358291       -0.6919954282
BI        -3.2253507786        0.1760250827       -0.2887561205
C         -3.7355845914        0.7655180017        1.8405388426
H         -4.8036350866        0.9063564521        1.9430046255
H         -3.4150913632       -0.0209100453        2.5084593229
H         -3.2283968294        1.6845288302        2.1033773944
C         -1.1056814855       -0.3805166493        0.2949322802
H         -1.1310962619       -0.9326976404        1.2232387334
H         -0.5075282494        0.5114929698        0.4277865127
H         -0.6590999506       -0.9973631729       -0.4738195995
C         -3.9534607307       -1.9456322531        0.0467341424
H         -5.0320569339       -1.9590432455        0.1324351778
*