!PBE D3 def2-QZVPP

%pal nprocs 8 end

*xyz 0 1
 C         -2.8276758972       -0.3116847693        1.3766394919
 C         -3.3226907988       -1.3743826490        0.4003728588
 C         -2.8365173770       -1.0703258297       -1.0134826346
 C         -3.2973286054        0.3169828248       -1.4510642726
 C         -2.8065731085        1.3809293761       -0.4736201861
 C         -3.2928206519        1.0739918203        0.9396030875
 H         -2.9169649248        1.8290423356        1.6337083006
 H         -4.3845619535        1.1131140109        0.9633538632
 H         -3.1660790235        2.3644803910       -0.7843957313
 H         -1.7142360730        1.4057053245       -0.4820027946
 H         -2.9247416955        0.5335041888       -2.4548573721
 H         -4.3891929235        0.3383526420       -1.4883263874
 H         -3.2168086975       -1.8235916781       -1.7072130354
 H         -1.7446531432       -1.1143926006       -1.0363837812
 H         -2.9680620426       -2.3597135933        0.7110838496
 H         -4.4151588436       -1.3940272125        0.4108380882
 H         -3.1976791203       -0.5285262549        2.3813217430
 H         -1.7361455376       -0.3320262536        1.4096125948
 BI         1.1333374092       -0.0025567435       -0.2627132816
 C          3.3955729712        0.1416985987       -0.2150606371
 H          3.7158986542        1.0893933897       -0.6276056609
 H          3.7293760010        0.0691454562        0.8099361292
 H          3.8340987727       -0.6633886677       -0.7901153714
 C          1.1416835352       -1.6984019058        1.2445665098
 H          0.1314538228       -1.9737452133        1.5190143174
 H          1.6756506139       -1.3793719747        2.1281353702
 H          1.6400863136       -2.5597886575        0.8196411468
 C          0.9313077944        1.5655562058        1.3650774027
 H         -0.0538208348        1.5245697003        1.8109851594
 H          1.0924805912        2.5529361478        0.9517149468
 H          1.6735354150        1.3741762376        2.1266868453
*