!PBE D3 def2-QZVPP

%pal nprocs 8 end

*xyz 0 1
H         -0.5666366457        0.5153939421        0.4230454545
H         -0.1662810742       -1.1719508059        0.1062619981
H         -0.3180579248       -0.0383706128       -1.2336524158
 31
       -32.34069632
C         -5.0204267033       -1.3850300826        0.4717261229
C         -3.6227389067       -0.7763467746        0.4132561014
C         -3.6854938016        0.7284505704        0.6573304726
C         -4.6012645113        1.3966813178       -0.3637644927
C         -5.9992425667        0.7881364725       -0.3047172337
C         -5.9366167627       -0.7166588942       -0.5490326017
H         -6.9390149946       -1.1460578026       -0.4874407777
H         -5.5538548272       -0.9036337757       -1.5553199015
H         -6.6431044690        1.2602229654       -1.0501847408
H         -6.4336729030        0.9763240511        0.6800636331
H         -4.6540326814        2.4704974450       -0.1707828696
H         -4.1884054824        1.2568110897       -1.3658790648
H         -2.6833035625        1.1585902407        0.5972635363
H         -4.0689048874        0.9146305708        1.6634210013
H         -2.9797269037       -1.2478297694        1.1595324109
H         -3.1883392647       -0.9654282602       -0.5718074287
H         -4.9673202182       -2.4586046834        0.2780141964
H         -5.4331759327       -1.2459081374        1.4738179139
BI         2.0867627022        0.2893674793       -0.1813245179
C          3.5158638181       -0.3829913682        1.4459853334
H          3.5045417683        0.3207607896        2.2679714889
H          3.2062052941       -1.3538518027        1.8048876568
H          4.5211416894       -0.4536379269        1.0517610407
C          2.2025174908       -1.7272368507       -1.2124561301
H          1.4864717424       -1.7770777022       -2.0224182842
H          1.9796272319       -2.5016073011       -0.4927530562
*