!PBE D3 def2-QZVPP

%pal nprocs 8 end

*xyz 0 1
H          9.5984049189       -0.7409747254       -2.0397821498
H          7.8592364853       -0.6820865463       -1.7403935018
H          8.7950166464        1.6066182705       -1.8425743117
H          9.9383204133        1.2106038306       -0.5565692250
H          7.9899021785        2.4262204736        0.3654420561
H          6.8982107001        1.2101759496       -0.3032865291
BI        -3.6089131209        0.0579482238       -0.3377569442
C         -5.5573263995       -0.2862693650        0.7706866337
H         -6.0891313184       -1.1245857859        0.3400279572
H         -5.3372621388       -0.4993408412        1.8068104151
H         -6.1794397437        0.5973196144        0.7135789806
C         -2.8523253239        1.4599036859        1.2766479299
H         -3.0714083429        1.0300927825        2.2433539239
H         -3.3408985940        2.4221060872        1.1958800634
H         -1.7828917820        1.5945055342        1.1811175770
C         -2.6355485039       -1.7311031813        0.6604800015
H         -3.0252688840       -2.6497936241        0.2420251392
H         -2.8520435852       -1.7024023812        1.7185690655
H         -1.5636394651       -1.7000357122        0.5154100759
 31
       -32.33907478
C          9.2731062392       -1.2935922048        0.0842379297
C          7.8792666841       -1.1746951401       -0.5250963931
C          7.6980905371        0.1917024734       -1.1796197154
C          7.9326538654        1.3053151158       -0.1631989074
C          9.3264898408        1.1863717023        0.4461301790
C          9.5076484642       -0.1800048906        1.1006784250
H         10.5135178164       -0.2626219633        1.5184391765
H          8.7946783230       -0.2845228649        1.9220844555
H          9.4788433934        1.9764680722        1.1847904654
H         10.0760375510        1.3132636055       -0.3387843328
*