!PBE D3 def2-QZVPP

%pal nprocs 8 end

*xyz 0 18589
46121451        0.1594906612        0.0757669851
29116383       -1.1192070254       -0.4665359343
96519788       -1.3549424362        0.1770154681
10324905       -0.1613274967       -0.0672352557
26695996        1.1176029309        0.4746315148
61495494        1.3532157084       -0.1685266516
81855682        2.2605437259        0.2383313617
83506596        1.4965988043       -1.2442165671
65856111        1.9688123540        0.2794130258
39895798        1.0301763476        1.5570511610
41322752       -0.3311733841        0.4116889869
80335557       -0.0522188001       -1.1406268319
75679770       -2.2623811021       -0.2295431853
77927593       -1.4981127330        1.2526872997
90465582       -1.9705359987       -0.2720047099
11810346       -1.0311989162       -1.5488606906
16871397        0.3293570980       -0.4027945961
72311620        0.0501165359        1.1491842093
09437013       -0.0885528910       -0.3157562276
39760312        1.9467686264        0.4998873140
00354548        1.8201277071        1.3354405111
94215191        2.4675026600        0.8363486428
40065751        2.5357250572       -0.2654162206
59457153        0.0144962152        0.7029145371
15994337        0.3147661245        1.7307727616
68305221        0.7390014462        0.2044787963
85331934       -0.9540055336        0.6778176321
89732876       -1.2114968951        1.4364519829
07317427       -1.5713786872        2.0782040749
32753395       -2.0528957273        1.0877954623
13887726       -0.5459400088        2.0012373654
*