!PBE D3 def2-QZVPP

%pal nprocs 8 end

*xyz 0 1
H          0.2546661206        1.4937312666       -0.8517742112
 31
       -32.34077298
C         -6.2344415260       -0.7505302707       -0.1585555353
C         -6.2502901217        0.7514795770        0.1096923802
C         -4.9920626122        1.4065803784       -0.4523659123
C         -3.7437149713        0.7705290696        0.1515062509
C         -3.7278861074       -0.7316687731       -0.1148323174
C         -4.9863923772       -1.3872090258        0.4459163326
H         -4.9750133415       -2.4588000470        0.2339013554
H         -5.0063249861       -1.2612848147        1.5312089237
H         -2.8407394529       -1.1803139879        0.3376751686
H         -3.6785967743       -0.9064527709       -1.1923863290
H         -2.8485993064        1.2316529197       -0.2704717345
H         -3.7344551841        0.9459965254        1.2301133962
H         -5.0035866099        2.4780952121       -0.2407392068
H         -4.9728418676        1.2802677252       -1.5375373979
H         -7.1380136626        1.2010759743       -0.3408883490
H         -6.2976942729        0.9255236083        1.1874420409
H         -7.1299889503       -1.2137419834        0.2617863379
H         -6.2426106245       -0.9248572096       -1.2372355191
BI         2.2150019967       -0.2829500007        0.1667477141
C          2.8079048369        0.1080990053       -1.9868292768
H          2.4233460869        1.0723215607       -2.2862837778
H          3.8858438173        0.1097621235       -2.0816407688
H          2.3948660592       -0.6559472744       -2.6323256148
C          2.8859439541        1.7872973073        0.8044816056
H          2.5245261932        2.5091278251        0.0863467607
H          3.9663396280        1.8345650753        0.8435054172
H          2.4836226399        2.0244926966        1.7806110202
C          0.0988891518        0.4400966990       -0.2073054479
*