!PBE D3 def2-QZVPP

%pal nprocs 8 end

*xyz 0 1
H         -9.8867880203        0.6620553606        0.6890842184
H        -10.0102371352       -1.5380078277       -0.4372478602
H         -8.7325527188       -1.0521141988       -1.5549559430
BI         3.6964521322       -0.1341474677        0.2157891456
C          2.6500298414        1.8616766467        0.4697744012
H          2.0018764575        1.8350059248        1.3358893509
H          3.3788768020        2.6517592320        0.5946109986
H          2.0574941629        2.0607733232       -0.4114480821
C          1.7763984471       -1.1400627254       -0.4501899601
H          1.2640246340       -0.4914412618       -1.1459415043
H          1.1359824291       -1.3243401026        0.4024328860
H          1.9995006370       -2.0799184479       -0.9378240416
C          4.2690667790        0.3551048152       -1.9236671950
H          5.0387043809        1.1156447098       -1.9381464633
H          3.3967601710        0.7225565830       -2.4446318672
H          4.6353801508       -0.5315124533       -2.4245241267
 31
       -32.33908039
C          7.5187731729        1.0968368358        0.8631146711
C          8.0147699159        1.3703100617       -0.5537346503
C          7.8326757916        0.1347671832       -1.4303938546
C          8.5682593363       -1.0591184744       -0.8289025250
C          8.0722777992       -1.3326010115        0.5879456983
C          8.2544114025       -0.0970393209        1.4645733780
H          7.8808360632       -0.2962041611        2.4715131021
H          9.3189357752        0.1366227077        1.5429342424
H          8.6164359208       -2.1771049387        1.0166751844
H          7.0131219757       -1.5992392944        0.5548262911
H          8.4177984071       -1.9425925036       -1.4533421267
H          9.6398446179       -0.8471286185       -0.8019812697
H          8.2064591600        0.3339627246       -2.4372107915
*