!PBE D3 def2-QZVPP

%pal nprocs 8 end

*xyz 0 1
H         -2.6041766048        2.6195309546       -0.4087322804
C         -0.1229565952        0.4274549720        0.7866889599
H          0.4578778007       -0.4594807319        1.0043141227
H         -0.3677956608        0.9271125705        1.7127945502
H          0.4590385901        1.0947667585        0.1645638519
 31
       -32.34054376
C          5.1572192639        1.2993740347        0.5760751876
C          4.6067883344        1.1940151861       -0.8430484995
C          3.8018371747       -0.0915983905       -1.0070437418
C          4.6642697082       -1.3067877401       -0.6795366161
C          5.2150518878       -1.2012722400        0.7394562918
C          6.0198622265        0.0844718942        0.9048115497
H          6.3956557615        0.1599833432        1.9276896712
H          6.8814492509        0.0605172137        0.2330446680
H          5.8447390928       -2.0660844048        0.9605133139
H          4.3845325295       -1.2014624404        1.4494102280
H          4.0746986395       -2.2205399753       -0.7829451479
H          5.4954018359       -1.3630554997       -1.3868955391
H          3.4239255527       -0.1669581695       -2.0292883138
H          2.9425994899       -0.0669753641       -0.3334500781
H          3.9763111619        2.0585143685       -1.0629888076
H          5.4367168595        1.1956818247       -1.5540388577
H          5.7456959516        2.2136658427        0.6811579233
H          4.3252380237        1.3534962061        1.2822536772
BI        -2.2662721910        0.0183448096       -0.2689866564
C         -2.4625754798       -1.7096664180        1.1867171303
H         -1.8885432199       -1.4872949219        2.0746437477
H         -3.4997911199       -1.8530116748        1.4600987825
H         -2.0842480283       -2.6180733827        0.7366316989
C         -2.5054608877        1.5433433839        1.3928804828
*