!PBE D3 def2-QZVPP

%pal nprocs 8 end

*xyz 0 1
C         -3.0311432715        1.8646118543       -0.5020543337
H         -2.8640268848        2.4217882933        0.4084185105
H         -4.0926653325        1.8311882844       -0.7095364309
H         -2.5237952084        2.3591792588       -1.3199729789
C         -0.2772718779        0.5507309636        0.6293831952
H         -0.5042140137        1.2396093833        1.4301985380
H          0.2847410275        1.0681836976       -0.1370221881
H          0.3158924017       -0.2666185407        1.0188517660
 31
       -32.34029745
C         -6.7232662614       -0.0963109317       -0.0340354521
C         -6.0155914673        1.2460328961        0.1259153571
C         -4.6569315209        1.2188251449       -0.5680725571
C         -3.7939944078        0.0912264840       -0.0095872524
C         -4.5020318874       -1.2509557163       -0.1686323465
C         -5.8606802316       -1.2237594772        0.5255126112
H         -6.3672823395       -2.1821325321        0.3909877099
H         -5.7158112516       -1.0696504326        1.5975890694
H         -3.8854836320       -2.0494841708        0.2503820051
H         -4.6437978692       -1.4607040302       -1.2315874157
H         -2.8322096433        0.0687565250       -0.5260600509
H         -3.6009307157        0.2744965155        1.0503444806
H         -4.1501990215        2.1770249636       -0.4334832860
H         -4.8018259520        1.0652878699       -1.6401202921
H         -6.6322205166        2.0443376695       -0.2931390685
H         -5.8744887321        1.4555335472        1.1890634239
H         -7.6865766153       -0.0735367470        0.4805294642
H         -6.9147186587       -0.2798213590       -1.0940577760
BI         2.2669759630       -0.1931881169        0.2785057139
C          3.3220333207       -0.6732798330       -1.6711703233
H          4.3899366357       -0.7393667882       -1.5088265613
*